3mgs_fossil_backup_1/circuit_plusmg_0.dss
clear
set defaultbasefrequency=60
new object=circuit.lehigh basekv=115 pu=1.0001 phases=3 bus1=sourcebus angle=30 mvasc3=20000 mvasc1=21000
edit object=vsource.source basekv=115 bus1=sourcebus.1.2.3 pu=1.00 r1=0 x1=0.0001 r0=0 x0=0.0001
new object=vsource.secondsource basekv=4.16 bus1=680.1.2.3 pu=1.00 r1=0 x1=0.0001 r0=0 x0=0.0001
new object=transformer.sub phases=3 windings=2 xhl=0.008 buses=[sourcebus.1.2.3,650.1.2.3] conns=[delta,wye] kvs=[115,4.16] kvas=[5000,5000] %rs=[0.0005,0.0005]
new object=transformer.reg1 phases=1 bank=reg1 xhl=0.01 kvas=[1666,1666] buses=[650.1,rg60.1] kvs=[2.4,2.4] %loadloss=0.01
new object=regcontrol.reg1 transformer=reg1 winding=2 vreg=121 band=2 ptratio=20 ctprim=700 r=3 x=9
new object=transformer.reg2 phases=1 bank=reg1 xhl=0.01 kvas=[1666,1666] buses=[650.2,rg60.2] kvs=[2.4,2.4] %loadloss=0.01
new object=regcontrol.reg2 transformer=reg2 winding=2 vreg=121 band=2 ptratio=20 ctprim=700 r=3 x=9
new object=transformer.reg3 phases=1 bank=reg1 xhl=0.01 kvas=[1666,1666] buses=[650.3,rg60.3] kvs=[2.4,2.4] %loadloss=0.01
new object=regcontrol.reg3 transformer=reg3 winding=2 vreg=121 band=2 ptratio=20 ctprim=700 r=3 x=9
new object=transformer.xfm1 phases=3 windings=2 xhl=2 buses=[633.1.2.3,634.1.2.3] conns=[wye,wye] kvs=[4.16,0.480] kvas=[500,500] %rs=[0.55,0.55] xht=1 xlt=1
new object=linecode.mtx601 nphases=3 basefreq=60 rmatrix=[0.3465|0.1560,0.3375|0.1580,0.1535,0.3414] xmatrix=[1.0179|0.5017,1.0478|0.4236,0.3849,1.0348] units=mi
new object=linecode.mtx602 nphases=3 basefreq=60 rmatrix=[0.7526|0.1580,0.7475|0.1560,0.1535,0.7436] xmatrix=[1.1814|0.4236,1.1983|0.5017,0.3849,1.2112] units=mi
new object=linecode.mtx603 nphases=2 basefreq=60 rmatrix=[1.3238|0.2066,1.3294] xmatrix=[1.3569|0.4591,1.3471] units=mi
new object=linecode.mtx604 nphases=2 basefreq=60 rmatrix=[1.3238|0.2066,1.3294] xmatrix=[1.3569|0.4591,1.3471] units=mi
new object=linecode.mtx605 nphases=1 basefreq=60 rmatrix=[1.3292] xmatrix=[1.3475] units=mi
new object=linecode.mtx606 nphases=3 units=mi rmatrix=[0.791721|0.318476,0.781649|0.28345,0.318476,0.791721] xmatrix=[0.438352|0.0276838,0.396697|-0.0184204,0.0276838,0.438352] cmatrix=[383.948|0,383.948|0,0,383.948]
new object=linecode.mtx607 nphases=1 basefreq=60 rmatrix=[1.3425] xmatrix=[0.5124] cmatrix=[236] units=mi
new object=loadshape.solar_634_shape npts=8760 interval=1 useactual=yes mult=[0.0,0.0,0.0,0.0,0.0,0.0,0.0,0.0,2.251409281371377,6.826004007644537,9.635571387693263,29.60903029483931,6.789964499373996,15.867074935379234,23.73761897684807,25.55655415897297,12.769191489166179,0.8464741648416733,0.0,0.0,0.0,0.0,0.0,0.0,0.0,0.0,0.0,0.0,0.0,0.0,0.0,0.0,5.9074508262617815,15.002732442907623,21.000130613340414,0.8286058372117419,45.07997349225329,16.11935149327301,58.533612785549046,40.253102208086354,21.252104318223523,1.8189351821248982,0.0,0.0,0.0,0.0,0.0,0.0,0.0,0.0,0.0,0.0,0.0,0.0,0.0,0.0,17.325917887809407,40.39726024116851,53.67070199311157,22.746986778924235,40.45116807706897,40.34304955225736,32.95888744593547,28.618398096915477,15.020600770537555,1.1886980669064642,0.0,0.0,0.0,0.0,0.0,0.0,0.0,0.0,0.0,0.0,0.0,0.0,0.0,0.0,26.366988815544104,60.406758656585076,85.76524694657542,101.5962823736841,107.62972005238743,104.78411316406816,92.17694803561409,70.65439597885617,38.50624604250253,7.564359647674589,0.0,0.0,0.0,0.0,0.0,0.0,0.0,0.0,0.0,0.0,0.0,0.0,0.0,0.0,28.67230593281595,63.972852857304495,90.01548609841373,105.79261368962194,111.55590648280157,107.61154887174686,94.10400174255062,71.7352783739617,38.866338272197254,7.384162106321889,0.0,0.0,0.0,0.0,0.0,0.0,0.0,0.0,0.0,0.0,0.0,0.0,0.0,0.0,22.657039434753226,53.652833665481644,84.10803527215194,75.3731487382115,85.20678599488737,87.8903665224946,88.23259042455936,66.9444465980653,36.23666558049054,6.771793318733387,0.0,0.0,0.0,0.0,0.0,0.0,0.0,0.0,0.0,0.0,0.0,0.0,0.0,0.0,22.999263336818014,22.837236976105924,81.60465228589746,93.59975147977372,83.82032491200899,80.2539278582789,67.64676272982481,34.57975675907773,18.262339396822085,1.945224887577126,0.0,0.0,0.0,0.0,0.0,0.0,0.0,0.0,0.0,0.0,0.0,0.0,0.0,0.0,23.413566255423888,54.589558027505,14.408231982949054,18.982826709222213,42.48634030881711,49.22209411927996,40.32518122462743,26.13288343829093,13.867942211901633,1.6030009855123353,0.0,0.0,0.0,0.0,0.0,0.0,0.0,0.0,0.0,0.0,0.0,0.0,0.0,0.0,24.061671698272253,55.237663470353354,29.60903029483931,62.982220659380644,49.33021264409157,23.03530284508856,29.536951278298236,24.710079994131288,12.805230997436716,6.0516088593439425,0.0,0.0,0.0,0.0,0.0,0.0,0.0,0.0,0.0,0.0,0.0,0.0,0.0,0.0,11.148322176023912,27.555686882450573,44.395525688123705,76.09363605061164,44.16142031087053,57.66896744006678,58.56965229381958,47.25900090407289,26.366988815544104,4.628805415184306,0.0,0.0,0.0,0.0,0.0,0.0,0.0,0.0,0.0,0.0,0.0,0.0,0.0,0.0,29.032701015521354,64.26086607045812,89.9437099348833,105.41435027928664,111.10556405592516,107.62972005238743,95.0585944322039,74.00455598296301,43.92731493361735,10.824269454599731,0.0,0.0,0.0,0.0,0.0,0.0,0.0,0.0,0.0,0.0,0.0,0.0,0.0,0.0,26.817331242420515,60.911008919361976,85.47693088041109,103.6493229330622,109.98894500555977,107.53946985520577,95.29269980945705,72.14927843955691,42.900643227422975,10.662243093887641,0.0,0.0,0.0,0.0,0.0,0.0,0.0,0.0,0.0,0.0,0.0,0.0,0.0,0.0,26.24100196310255,60.22656111523239,84.81065425692212,78.23692680717139,86.84582648867027,78.9755853002121,71.26676476644468,56.85853278349563,33.73328259423606,8.158557254622481,0.0,0.0,0.0,0.0,0.0,0.0,0.0,0.0,0.0,0.0,0.0,0.0,0.0,0.0,10.932387979411349,25.898778061037763,46.93494818264872,59.830429377267116,68.54744758357764,62.91014164283956,37.209429450784434,30.29347809896889,17.091812510556235,2.7916990524187995,0.0,0.0,0.0,0.0,0.0,0.0,0.0,0.0,0.0,0.0,0.0,0.0,0.0,0.0,5.763292793179621,15.470943197413972,71.86126522640325,89.58331485217792,103.4691253917095,102.64082240750842,91.69056610046715,71.59112034087954,41.729813488146455,10.554124569076016,0.0,0.0,0.0,0.0,0.0,0.0,0.0,0.0,0.0,0.0,0.0,0.0,0.0,0.0,23.86360582928963,55.4539005199766,78.21875562653078,66.15188026912409,77.75054487202442,101.2361901439894,61.18115380488568,27.952121473426512,15.650837885755989,2.8277385606893395,0.0,0.0,0.0,0.0,0.0,0.0,0.0,0.0,0.0,0.0,0.0,0.0,0.0,0.0,24.674040485860754,59.34404744212017,86.62958943904705,105.5763766399987,109.59281326759451,106.78324588754576,94.82448905495072,74.6169247705515,43.69320955636418,11.382427553277084,0.0,0.0,0.0,0.0,0.0,0.0,0.0,0.0,0.0,0.0,0.0,0.0,0.0,0.0,26.94331809486206,60.69477186973872,87.81828750595348,104.00941516275692,110.49319526833663,107.71997024956914,96.67946374534617,75.69750431264636,44.46760470466479,11.742822635982485,0.0,0.0,0.0,0.0,0.0,0.0,0.0,0.0,0.0,0.0,0.0,0.0,0.0,0.0,28.420332227932853,63.720576299410716,89.36738065556536,104.63995513098602,114.635618748374,111.70006451588371,99.27309692878235,75.93160968989953,46.71871113302547,12.805230997436716,0.0,0.0,0.0,0.0,0.0,0.0,0.0,0.0,0.0,0.0,0.0,0.0,0.0,0.0,27.897910784515357,62.225693838709994,87.00785284938236,101.88429558683777,107.44952251103477,104.22565221238014,92.91530367564415,73.26589748992228,44.395525688123705,11.940888504965114,0.0,0.0,0.0,0.0,0.0,0.0,0.0,0.0,0.0,0.0,0.0,0.0,0.0,0.0,7.1860962373392585,17.99219451129838,27.249502488656315,15.560890541584977,45.11601300052382,12.030835849136126,12.553257292553615,0.1801975413526997,0.0,0.0,0.0,0.0,0.0,0.0,0.0,0.0,0.0,0.0,0.0,0.0,0.0,0.0,0.0,0.0,6.6279381386619045,19.469208644369164,55.021729273740796,58.76771816280221,110.94353769521305,108.5482732337702,51.29330585929863,44.50364421293532,25.880909733407826,5.745424465549691,0.0,0.0,0.0,0.0,0.0,0.0,0.0,0.0,0.0,0.0,0.0,0.0,0.0,0.0,7.492280631133509,19.433169136098627,22.584960418212148,56.21012448763658,118.5978446870587,116.59871196358105,104.06362585166805,82.14494205694487,49.56431802134474,14.048139753254333,0.0,0.0,0.0,0.0,0.0,0.0,0.0,0.0,0.0,0.0,0.0,0.0,0.0,0.0,29.71714881965093,65.43139295672398,91.18631583769026,106.62091667382302,113.05078894350227,110.31330057999465,98.80458332126531,78.32687415134237,49.06006775856787,14.372192474678517,0.0,0.0,0.0,0.0,0.0,0.0,0.0,0.0,0.0,0.0,0.0,0.0,0.0,0.0,28.312213703121227,62.53187823250424,86.98998452175243,101.95637460337885,108.09793080689379,105.14450824677358,94.41018613634485,75.33710922994095,47.096974543360815,13.88611339254224,0.0,0.0,0.0,0.0,0.0,0.0,0.0,0.0,0.0,0.0,0.0,0.0,0.0,0.0,18.784760840239578,43.06266958813507,49.63639703788583,73.68020040852815,82.48746881202034,79.04736146374252,71.96938375121488,52.93234635308151,32.41859767488804,9.257307977357936,0.0,0.0,0.0,0.0,0.0,0.0,0.0,0.0,0.0,0.0,0.0,0.0,0.0,0.0,22.332683860318365,52.17581953241085,50.55495021926858,93.90593587356798,99.07503105979971,71.87913355403319,9.977795289758056,69.88000083055559,41.27977391428072,11.616532930530255,0.0,0.0,0.0,0.0,0.0,0.0,0.0,0.0,0.0,0.0,0.0,0.0,0.0,0.0,6.321753744867653,10.17586115874069,15.34465349196174,23.71975064921814,18.73085300433911,13.003599719430026,13.183494407772052,5.11488449732058,2.629369838696032,0.053907835900471504,0.0,0.0,0.0,0.0,0.0,0.0,0.0,0.0,0.0,0.0,0.0,0.0,0.0,0.0,29.753188327921468,64.83719534977608,90.26776265630751,105.99067955860457,112.40238064764324,109.89899766138876,99.43512328949444,79.91170395621413,49.18635746402009,15.579061722225587,0.0,0.0,0.0,0.0,0.0,0.0,0.0,0.0,0.0,0.0,0.0,0.0,0.0,0.0,28.25830586722076,62.47797039660377,87.42215576798823,102.40671703025524,108.67426008621172,106.441021985481,95.85085790813444,61.52337770695046,40.93755001221592,15.470943197413972,0.0,0.0,0.0,0.0,0.0,0.0,0.0,0.0,0.0,0.0,0.0,0.0,0.0,0.0,8.825136731122132,27.069607800314287,46.088474017807044,46.6466321164844,60.01032406560915,56.6786380951536,51.16731900685709,36.812994859808505,22.584960418212148,6.483780105579744,0.0,0.0,0.0,0.0,0.0,0.0,0.0,0.0,0.0,0.0,0.0,0.0,0.0,0.0,29.735017147280864,65.35961679319357,92.62698760947984,108.51223372549966,115.21194802769196,113.2128153042144,101.68622971785514,81.96504736860285,51.04133215441554,17.037904674655767,0.0,0.0,0.0,0.0,0.0,0.0,0.0,0.0,0.0,0.0,0.0,0.0,0.0,0.0,29.84313567209249,63.630628955239686,88.26893278584059,103.43308588343895,109.61068159522443,107.91803611855177,97.72400377917047,79.10126929964298,51.02316097377492,17.361957396079948,0.0,0.0,0.0,0.0,0.0,0.0,0.0,0.0,0.0,0.0,0.0,0.0,0.0,0.0,29.626898622469238,25.700712192055125,60.28046895113286,74.90493798370515,85.47723373342178,83.7300747148273,72.13141011192697,20.657906711275626,14.930653426366543,9.85150558430583,0.0,0.0,0.0,0.0,0.0,0.0,0.0,0.0,0.0,0.0,0.0,0.0,0.0,0.0,0.0,22.89114481200639,61.7214435759331,86.55751042250596,112.78064405797858,112.69069671380754,103.25319119509692,83.96418009208047,52.98625418898199,18.64060280715742,0.0,0.0,0.0,0.0,0.0,0.0,0.0,0.0,0.0,0.0,0.0,0.0,0.0,0.0,21.396262351305683,57.05659865247824,85.35094402796955,114.00538163315555,96.33723984328137,108.29599667587642,106.31503513303943,82.57741615619138,31.91434741211116,15.524851033314441,0.0,0.0,0.0,0.0,0.0,0.0,0.0,0.0,0.0,0.0,0.0,0.0,0.0,0.0,15.74108808293768,20.8920120885288,15.74108808293768,23.71975064921814,15.705048574667142,65.57555098980615,59.722310852455514,43.35098565429939,15.056640278808098,2.0712117400186782,0.0,0.0,0.0,0.0,0.0,0.0,0.0,0.0,0.0,0.0,0.0,0.0,0.0,0.0,1.170526886265856,7.564359647674589,11.832769980153492,42.342182275734956,50.96925313787445,23.73761897684807,34.3816908900951,14.984561262267018,9.095281616645844,17.127852018826776,0.0,0.0,0.0,0.0,0.0,0.0,0.0,0.0,0.0,0.0,0.0,0.0,0.0,0.0,7.456241122862967,7.0961488931682455,27.519647374180032,53.90480737036474,49.43833116890321,61.84743042837465,67.59285489392435,81.51470494172645,52.69824097582834,18.910747692681134,0.0,0.0,0.0,0.0,0.0,0.0,0.0,0.0,0.0,0.0,0.0,0.0,0.0,0.0,5.979529842802861,15.18262713124965,28.402161047292232,105.77444250898131,39.69464125639831,39.478707059785755,44.809828606729575,33.715414266606125,0.8286058372117419,17.578194445703186,0.0,0.0,0.0,0.0,0.0,0.0,0.0,0.0,0.0,0.0,0.0,0.0,0.0,0.0,9.563492371152185,42.50451148945772,91.87046078880914,109.66489228413558,115.77040897938,115.21194802769196,104.69416581989715,85.22495717552798,55.16558445381227,20.80206474435779,0.0,0.0,0.0,0.0,0.0,0.0,0.0,0.0,0.0,0.0,0.0,0.0,0.0,3.0436727573019025,35.06613869422468,69.98842220837788,95.88689741640495,111.06952454765465,117.42762065380349,114.9778426504388,104.53183660617441,85.44089137214056,57.05659865247824,21.864473105812024,0.0,0.0,0.0,0.0,0.0,0.0,0.0,0.0,0.0,0.0,0.0,0.0,0.0,3.0978834462130505,33.80536161077714,67.44869686084219,91.78051344463816,106.62091667382302,112.97870992696122,111.26789326964793,104.63995513098602,82.91964005825616,55.05746592900066,21.198196482323045,0.0,0.0,0.0,0.0,0.0,0.0,0.0,0.0,0.0,0.0,0.0,0.0,0.0,3.908318102784184,35.53434944873102,70.00629053600782,97.45385889364677,109.25058936552973,115.23011920833258,96.80545059778773,91.79868462527875,70.36638276570254,55.562019044788215,11.994796340865587,0.0,0.0,0.0,0.0,0.0,0.0,0.0,0.0,0.0,0.0,0.0,0.0,0.0,0.07207901654107987,19.739353529892878,45.18778916405422,63.86473433249286,72.70773939124491,85.8191547824759,90.82592075498485,60.406758656585076,53.130412222064145,37.65946902465018,12.769191489166179,0.0,0.0,0.0,0.0,0.0,0.0,0.0,0.0,0.0,0.0,0.0,0.0,0.0,0.8646453454822818,31.806228887299536,63.77448413531118,89.36707780255469,104.9640078524102,111.44778795798996,109.73697130067666,100.06536040471285,80.88446782650801,51.76181946681565,20.009498415416587,0.0,0.0,0.0,0.0,0.0,0.0,0.0,0.0,0.0,0.0,0.0,0.0,0.0,0.0,4.7366210869852505,6.717885482832916,21.30631500713467,29.807096163821946,31.78836055966961,38.48807486186192,24.512014125148664,21.27027549886413,22.638868254112616,8.41083381251626,0.0,0.0,0.0,0.0,0.0,0.0,0.0,0.0,0.0,0.0,0.0,0.0,0.0,0.0,0.5224214434174907,23.233368714071194,41.333681750181185,53.50867563239947,80.92050733477856,92.46496124876772,72.34734430853952,89.4933675080069,33.7693221025066,11.562625094629785,0.0,0.0,0.0,0.0,0.0,0.0,0.0,0.0,0.0,0.0,0.0,0.0,0.0,3.800199577972564,11.796730471882956,25.43056730653141,44.8276969343595,62.04549629735728,120.00277980358835,115.860356323551,105.55850831236877,86.75557629148857,58.533612785549046,23.61163212440652,0.0,0.0,0.0,0.0,0.0,0.0,0.0,0.0,0.0,0.0,0.0,0.0,0.0,4.862910792437477,36.074639219778454,69.77188230574397,93.92380420119792,108.67426008621172,113.91513143597388,111.66402500761318,102.11870381710163,83.89210107553937,56.6786380951536,22.98109215617741,0.0,0.0,0.0,0.0,0.0,0.0,0.0,0.0,0.0,0.0,0.0,0.0,0.0,4.430436693190997,13.723784178819473,57.41699373518365,69.39392174841929,107.3235356585932,112.96084159933129,110.96170887585366,101.30826916053049,83.15374543550931,56.264335176547725,21.84660477818209,0.0,0.0,0.0,0.0,0.0,0.0,0.0,0.0,0.0,0.0,0.0,0.0,0.0,1.9630932152070582,7.294214762150878,35.89474453143642,33.7693221025066,46.628763788854464,64.00858951256434,52.19399071305146,66.58435436837058,32.81472941285331,10.22976899464116,0.01786832762993156,0.0,0.0,0.0,0.0,0.0,0.0,0.0,0.0,0.0,0.0,0.0,0.0,0.0,0.0,0.9364215090126848,0.4682107545063424,5.637305940738071,36.56102115492539,25.376659470630948,58.551481113178966,63.52251043042808,42.05416906258132,4.6106342345436975,21.61249940092892,0.0,0.0,0.0,0.0,0.0,0.0,0.0,0.0,0.0,0.0,0.0,0.0,0.0,6.501648433209676,40.7394841432333,77.12030775680599,103.3070990309974,119.62451639325305,125.58587505541529,118.77834508142205,108.53040490614029,89.36738065556536,61.34318016559777,25.9348175693083,0.0,0.0,0.0,0.0,0.0,0.0,0.0,0.0,0.0,0.0,0.0,0.0,0.0,6.879911843545008,39.94691781429209,73.446095031275,97.36360869646505,111.87995920422577,117.6792915056759,115.23011920833258,105.12633706613295,86.80978698039974,59.41612645866125,25.01626438792555,0.0,0.0,0.0,0.0,0.0,0.0,0.0,0.0,0.0,0.0,0.0,0.0,0.0,4.574594726273158,36.164889416960136,56.73254593105407,78.36291365961294,95.0585944322039,95.11250226810438,95.14854177637493,57.038730324848316,39.964786141922026,54.78732104347695,24.00776386237178,0.0,0.0,0.0,0.0,0.0,0.0,0.0,0.0,0.0,0.0,0.0,0.0,0.0,2.6115015110661,22.24273651614736,49.978620939950616,59.66840301655503,72.70773939124491,70.96058037265044,87.56631380107036,65.08947190766986,32.86894010176445,10.283979683552307,10.19372948637062,0.0,0.0,0.0,0.0,0.0,0.0,0.0,0.0,0.0,0.0,0.0,0.0,0.0,5.583095251826922,27.37579219410855,36.88507387634958,61.1090747883446,84.86486494583328,83.69403520655673,77.01218923199437,66.67430171254159,64.47710312008137,37.425363647397,8.680978698039974,0.0,0.0,0.0,0.0,0.0,0.0,0.0,0.0,0.0,0.0,0.0,0.0,0.0,2.9715937407608224,16.479443722967734,43.4409329984704,44.8276969343595,56.10230881583564,68.27730269805393,79.28146684099568,69.9881193553672,61.99158846145682,44.953683786801044,13.957889556072645,0.0,0.0,0.0,0.0,0.0,0.0,0.0,0.0,0.0,0.0,0.0,0.0,0.0,8.032570402180932,40.595326110151134,72.79768673541594,95.85085790813444,108.85445762756444,117.82375239176876,114.36547386285031,102.8930989654022,82.97354789415662,54.28307078070007,23.575592616135978,0.0,0.0,0.0,0.0,0.0,0.0,0.0,0.0,0.0,0.0,0.0,0.0,0.0,8.789097222851593,43.49484083437088,78.45316385679462,103.68536244133273,119.12026613047615,125.06375646500848,122.61428131465445,100.55174233985979,92.32110606869624,58.60569180209012,28.132016161768533,0.0,0.0,0.0,0.0,0.0,0.0,0.0,0.0,0.0,0.0,0.0,0.0,0.0,8.554991845598423,39.76672027293939,67.86299977944806,103.86555998268543,117.6792915056759,122.6863603311955,119.17417396637664,106.29686395239884,82.68553468100299,55.05746592900066,23.665539960306987,0.0,0.0,0.0,0.0,0.0,0.0,0.0,0.0,0.0,0.0,0.0,0.0,0.0,9.095281616645844,4.070344463496276,79.51557221824885,34.83203331697151,42.6483666695292,58.821625998702686,125.81998043266846,112.27639379520168,92.62729046249048,62.20782551108007,28.024200489967583,0.0,0.0,0.0,0.0,0.0,0.0,0.0,0.0,0.0,0.0,0.0,0.0,0.0,10.067742633929068,44.79165742608896,77.84049221619544,100.92970289718444,114.9778426504388,120.52489839399522,118.5621080317988,107.77387808546963,89.81742022943111,62.36985187179214,28.132016161768533,0.0,0.0,0.0,0.0,0.0,0.0,0.0,0.0,0.0,0.0,0.0,0.0,0.0,10.680111421517573,47.349251101254595,81.85692884379124,107.08943028134001,122.1821100684187,127.98144236986884,125.04588813737853,114.05959232206672,91.56457924802557,64.09883970974603,29.356753736945528,1.4948824607007152,0.0,0.0,0.0,0.0,0.0,0.0,0.0,0.0,0.0,0.0,0.0,0.0,10.806098273959124,46.196592542618674,80.27209903891952,103.84738880204479,117.4091466201522,118.14780511319292,115.71650114347952,105.12633706613295,86.05326015972906,60.064534754520295,27.05143661967369,1.0266717061943729,0.0,0.0,0.0,0.0,0.0,0.0,0.0,0.0,0.0,0.0,0.0,0.0,10.6262035856171,41.531747619163816,78.65092687276658,102.67686191577896,116.27465924215687,120.88529347670055,119.26442416355832,103.34344139227863,85.0629308148159,58.875836687613834,26.40302832381464,0.9185531813827532,0.0,0.0,0.0,0.0,0.0,0.0,0.0,0.0,0.0,0.0,0.0,0.0,11.148322176023912,45.62026326330071,78.23692680717139,102.1726116530021,116.14867238971532,122.30809692086021,120.21871400020092,109.73697130067666,91.33047387077242,61.7032723952925,28.132016161768533,1.6208693131422671,0.0,0.0,0.0,0.0,0.0,0.0,0.0,0.0,0.0,0.0,0.0,0.0,10.139821650470148,39.208562174262035,78.21905847954146,91.00611829633756,114.88789530626775,119.28229249118824,116.43668560286898,105.8468243785331,86.6117211114171,44.35948617985317,27.069607800314287,1.3688956082591641,0.0,0.0,0.0,0.0,0.0,0.0,0.0,0.0,0.0,0.0,0.0,0.0,11.346388045006545,44.37735450748309,60.1363109180507,69.60985594503188,73.95064814706255,108.35020736478756,117.10296222635796,72.25739696436851,85.47723373342178,57.99332301450162,26.763423406520037,1.2247375751770042,0.0,0.0,0.0,0.0,0.0,0.0,0.0,0.0,0.0,0.0,0.0,0.0,9.671610895963807,34.70604646452996,66.92657827043537,99.54293896129542,114.13136848559714,90.98824996870762,99.48903112539487,85.98148399619865,78.14697946300035,56.73254593105407,27.141686816855373,1.5309219689712552,0.0,0.0,0.0,0.0,0.0,0.0,0.0,0.0,0.0,0.0,0.0,0.0,8.464741648416734,30.22139908242781,30.311346426598824,17.235970543638395,46.412526739231225,62.9461811511101,117.04905439045747,106.54914051029259,88.50273531008308,61.75748308420364,27.771923932073808,1.9991327234775975,0.0,0.0,0.0,0.0,0.0,0.0,0.0,0.0,0.0,0.0,0.0,0.0,13.093547063601038,47.529145789596605,79.33567752990683,76.92224188782336,115.78827730700992,120.0388193118589,118.2195812767233,108.22391765933537,90.12360462322536,63.25236554490436,28.906714163079794,2.3592249531723204,0.0,0.0,0.0,0.0,0.0,0.0,0.0,0.0,0.0,0.0,0.0,0.0,13.669876342919002,47.421330117795655,77.75054487202442,99.09259653441894,114.94180314216824,120.3268325250125,117.12113340699855,93.00525101981516,88.98911724523002,60.65873236146819,28.83463514653872,2.3413566255423888,0.0,0.0,0.0,0.0,0.0,0.0,0.0,0.0,0.0,0.0,0.0,0.0,13.489678801566305,46.538816444683455,68.04289446779008,73.69837158916877,94.50013348051588,105.34227126274556,94.17608075909168,91.58244757565552,78.14697946300035,38.39812751769091,18.406497429904253,0.9185531813827532,0.0,0.0,0.0,0.0,0.0,0.0,0.0,0.0,0.0,0.0,0.0,0.0,1.8731458710360465,7.816636205568368,12.355191423570984,23.287276549971658,12.481178276012535,8.284846960074711,28.420332227932853,39.37058853497413,2.9897649214014304,22.27877602441789,10.571992896705954,0.01786832762993156,0.0,0.0,0.0,0.0,0.0,0.0,0.0,0.0,0.0,0.0,0.0,0.0,7.456241122862967,23.19732920580065,37.119179253602745,34.77782262806036,52.0498326799693,42.342182275734956,39.820930961850536,43.47697250674094,41.89214270186921,12.931520702888944,5.979529842802861,0.0,0.0,0.0,0.0,0.0,0.0,0.0,0.0,0.0,0.0,0.0,0.0,0.0,2.215369773100837,9.383294829799489,35.03009918595414,50.73514776062129,85.6389572411232,117.53543632560442,94.91443639912174,92.24902705215516,86.26949720935232,37.65946902465018,18.082444708480068,1.0805795420948443,0.0,0.0,0.0,0.0,0.0,0.0,0.0,0.0,0.0,0.0,0.0,0.0,16.011232968461393,17.379825723709878,53.382688779957924,84.68466740448058,120.3268325250125,125.26182233399106,123.94713741464308,114.43755287939139,95.68883154742235,35.12004653012516,17.722049625774673,1.4588429524301756,0.0,0.0,0.0,0.0,0.0,0.0,0.0,0.0,0.0,0.0,0.0,0.0,19.090945234033832,57.795257145519,91.54640806738495,115.59021143802728,128.84578486234042,133.36647175271312,131.07932581608188,118.8322529173225,98.5165701081117,69.26763204296708,32.41859767488804,3.530054692448853,0.0,0.0,0.0,0.0,0.0,0.0,0.0,0.0,0.0,0.0,0.0,0.0,18.856839856780663,55.72404540550032,87.04389235765291,108.42198352831798,120.27292468911207,123.56887400430777,122.650320822925,110.56557713788841,91.20418416532014,64.31477390635861,31.248070788622194,3.368028331736762,0.0,0.0,0.0,0.0,0.0,0.0,0.0,0.0,0.0,0.0,0.0,0.0,18.622734479527487,54.15708392825852,84.2703644858747,109.39474739861187,122.25388623194904,67.57468371328375,125.22578282572056,113.62711822282024,94.93260757976236,65.26936659601189,31.986426428652248,4.016436627595803,0.0,0.0,0.0,0.0,0.0,0.0,0.0,0.0,0.0,0.0,0.0,0.0,18.352589594003774,53.20249123860522,83.7300747148273,105.36044244338612,56.60655907861253,96.37327935155191,98.13830669777631,73.82435844161031,47.151185232271956,36.68700800736696,18.100313036110002,1.7111195103239554,0.0,0.0,0.0,0.0,0.0,0.0,0.0,0.0,0.0,0.0,0.0,0.0,2.0351722317481378,4.502515709732078,4.93468695596788,16.713549100220902,37.155218761873286,50.95138481024452,65.5395114815356,51.70760877790451,51.16731900685709,24.260040420265565,12.174993882218287,0.7743951483005934,0.0,0.0,0.0,0.0,0.0,0.0,0.0,0.0,0.0,0.0,0.0,0.0,0.7925663289412017,3.404067840007301,12.751323161536249,19.79326136579334,20.49588035056354,21.90051261408256,15.056640278808098,17.001865166385222,14.642337360202227,7.996530893910391,3.692081053160945,0.0,0.0,0.0,0.0,0.0,0.0,0.0,0.0,0.0,0.0,0.0,0.0,0.0,0.34222390206479103,0.3240527214241826,5.709384957279152,9.61740020705266,17.055773002285694,12.247072898759367,14.624469032572296,8.789097222851593,17.938286675397908,14.858574409825465,7.1860962373392585,0.1801975413526997,0.0,0.0,0.0,0.0,0.0,0.0,0.0,0.0,0.0,0.0,0.0,0.0,19.505248152639705,53.220662419245826,81.94687618796226,102.0823614558204,64.09883970974603,55.48994002824714,74.36464821265774,58.425494260737416,92.46496124876772,30.455504459680988,31.42796547696421,4.214502496578436,0.0,0.0,0.0,0.0,0.0,0.0,0.0,0.0,0.0,0.0,0.0,0.0,5.421068891114831,26.619265373437887,53.50867563239947,61.34318016559777,53.54471514067001,58.40762593310749,68.65526325537859,58.9297445235143,79.02949313611258,45.241999852965364,23.19732920580065,3.2238702986546017,0.0,0.0,0.0,0.0,0.0,0.0,0.0,0.0,0.0,0.0,0.0,0.0,21.61249940092892,56.426361537259815,77.17421559270645,90.46613137830082,105.72053467308086,110.63735330141884,106.22508778886841,96.66159541771624,78.90320343066034,46.46673742814239,23.665539960306987,3.4579756759077727,0.0,0.0,0.0,0.0,0.0,0.0,0.0,0.0,0.0,0.0,0.0,0.0,20.90988041615873,48.46587015161997,61.19902213251561,68.85363197737189,72.22135745609799,80.32600687481998,97.05772715568149,82.4514293037498,47.6193959867783,26.2952126520137,13.057507555330501,1.3867639358890955,0.0,0.0,0.0,0.0,0.0,0.0,0.0,0.0,0.0,0.0,0.0,0.0,10.320019191822848,25.106514585107234,39.730680764668854,106.67512736273416,117.89552855529915,123.0824920691608,119.71446373742405,109.88112933375885,91.45646072321397,63.018260167651185,15.074508606438028,4.430436693190997,0.0,0.0,0.0,0.0,0.0,0.0,0.0,0.0,0.0,0.0,0.0,0.0,21.702446745099934,54.19312343652906,50.2308974978444,70.07836955254889,89.92553875424271,117.71533101394644,113.95147379725508,103.90159949095595,86.7919186527698,61.7214435759331,17.97432618366845,2.57546200279556,0.0,0.0,0.0,0.0,0.0,0.0,0.0,0.0,0.0,0.0,0.0,0.0,3.692081053160945,18.74872133196904,32.7429532493229,35.678507481813185,52.554082942746184,75.82349116508792,83.09983759960885,80.66823077688477,91.45646072321397,43.02663007986453,13.993929064343185,1.8371063627655064,0.0,0.0,0.0,0.0,0.0,0.0,0.0,0.0,0.0,0.0,0.0,0.0,24.296079928536106,60.85679823045082,91.6726977728372,113.10469677940277,125.49592771124428,130.2867594871407,126.86482331950344,115.59021143802728,96.64342423707564,68.85363197737189,34.273572365283485,5.11488449732058,0.0,0.0,0.0,0.0,0.0,0.0,0.0,0.0,0.0,0.0,0.0,0.2522765578937796,24.818198518942914,59.18202108140808,88.91703822868895,106.71116687100469,119.1020949498355,123.71303203738995,124.93776961256692,109.79087913657713,91.43859239558401,65.19728757947081,33.21116400382925,5.29508203867328,0.0,0.0,0.0,0.0,0.0,0.0,0.0,0.0,0.0,0.0,0.0,0.9185531813827532,25.98902825821945,60.98308793590304,90.17751245912581,110.54740595724779,121.69572813327171,125.09979597327902,122.1100310518776,111.9523410737775,94.21212026736221,67.52077587738327,34.687875283889355,5.637305940738071,0.0,0.0,0.0,0.0,0.0,0.0,0.0,0.0,0.0,0.0,0.0,0.6662766234889737,22.422934057500054,43.27890663775831,65.32357728492303,73.446095031275,91.36651337904296,78.47103218442454,103.00091463720314,55.903940093842344,58.44366544137803,63.828694824222325,31.28380744388205,5.097016169690646,0.0,0.0,0.0,0.0,0.0,0.0,0.0,0.0,0.0,0.0,0.0,0.0,20.74785405544664,32.022465936922785,29.789227836192012,32.922847937664926,52.28393805722247,68.18705250087224,40.631365618421675,38.091943123896655,39.13648315772096,24.296079928536106,7.366293778691957,3.0076332490313624,0.0,0.0,0.0,0.0,0.0,0.0,0.0,0.0,0.0,0.0,0.0,0.0,8.32088646834525,24.872409207854055,23.575592616135978,112.45628848354369,127.90936335332778,133.5106297857953,126.7206652864213,116.36490943933858,97.56197741845837,69.75401397811405,34.48980941490672,5.655174268368001,0.0,0.0,0.0,0.0,0.0,0.0,0.0,0.0,0.0,0.0,0.0,2.0351722317481378,28.69047711345656,66.11614361386424,98.85849115716576,121.06549101805328,134.15873522864365,138.2475537257912,133.81681417958953,121.28172806767653,98.39058325567015,52.031964352339365,28.45637173620339,6.087345514603804,0.0,0.0,0.0,0.0,0.0,0.0,0.0,0.0,0.0,0.0,0.0,2.125119575919149,28.780424457627568,64.98135338285825,95.47289735080976,116.1126328814448,128.23341607475194,132.12356299689552,128.10742922231034,116.67109383313284,97.27396420530474,67.75488125463644,35.192125546666226,6.249674728326572,0.0,0.0,0.0,0.0,0.0,0.0,0.0,0.0,0.0,0.0,0.0,2.50338298625448,29.590859114198704,65.30540610428243,93.76177784048582,113.1589074683139,124.09099259471456,127.40511309055086,123.4068476435957,112.67252553316696,94.82448905495072,68.13314466497177,35.24633623557738,6.087345514603804,0.0,0.0,0.0,0.0,0.0,0.0,0.0,0.0,0.0,0.0,0.0,2.6835805276071802,29.050569343151285,64.3329450869992,93.54554079086256,113.28489432075547,109.01648398827652,129.40424581402846,125.85632279394969,115.21225088070265,96.66159541771624,67.50260469674267,35.012230858324216,6.159424531144888,0.0,0.0,0.0,0.0,0.0,0.0,0.0,0.0,0.0,0.0,0.0,2.845606888319271,28.132016161768533,62.02762796972736,63.55854993869862,57.038730324848316,64.17091872628711,28.85250347416865,90.01548609841373,112.31243330347223,92.64515879012043,65.73757735051825,33.01279528183593,6.267543055956504,0.0,0.0,0.0,0.0,0.0,0.0,0.0,0.0,0.0,0.0,0.0,2.75565954414826,27.303713177567463,39.37058853497413,70.3485144380726,108.78237861102338,93.54554079086256,125.11766430090894,121.22751737876537,111.41205130273008,94.03192272600953,68.02502614016015,34.70604646452996,6.357793253138193,0.0,0.0,0.0,0.0,0.0,0.0,0.0,0.0,0.0,0.0,0.0,3.2056991180139938,27.79009511271441,59.77621868835598,71.19498860291428,86.59354993077648,38.01986410735557,81.83875766315063,103.52333608062064,86.71983963622873,50.46500287509758,32.74265039631223,15.308916836701878,5.8532401373506335,0.0,0.0,0.0,0.0,0.0,0.0,0.0,0.0,0.0,0.0,0.0,2.6835805276071802,4.7187527593553185,18.964958381592282,24.674040485860754,30.50971514859214,58.047230850402094,86.03508897908846,51.05920048204546,48.0515672330141,29.014529834880747,24.260040420265565,14.624469032572296,6.357793253138193,0.0,0.0,0.0,0.0,0.0,0.0,0.0,0.0,0.0,0.0,0.0,1.7289878379538863,9.92358460084691,63.720576299410716,67.77274958226637,80.65005959624415,85.58504940522273,80.72244146579592,90.84409193562547,81.1367443844018,75.94978087054014,52.59012245101672,33.89530895494815,6.898083024185616,0.0,0.0,0.0,0.0,0.0,0.0,0.0,0.0,0.0,0.0,0.0,0.1801975413526997,1.6750800020534151,6.807832827003926,10.499913880164874,10.878177290500199,17.361957396079948,21.432301859576217,49.978620939950616,44.0351306054183,33.37319036454134,21.59432822028831,6.177595711785492,0.0,0.0,0.0,0.0,0.0,0.0,0.0,0.0,0.0,0.0,0.0,0.0,4.358357676649918,31.86013672320001,66.65613053190098,92.84322465910307,111.14160356419569,122.07399154360705,125.5140988918849,121.87592567462441,112.1143674344896,94.14004125082116,68.43932905876602,36.27270508876108,7.024069876627166,0.0,0.0,0.0,0.0,0.0,0.0,0.0,0.0,0.0,0.0,0.0,4.7366210869852505,31.87830790384062,64.63912948079346,90.95221046043707,109.30449720143021,99.61532083084715,124.55950620223156,119.82288511524635,109.93503716965931,91.87076364181983,20.63973553063502,35.73241531771366,7.312083089780809,0.0,0.0,0.0,0.0,0.0,0.0,0.0,0.0,0.0,0.0,0.0,4.862910792437477,32.94101911830553,68.6916056166598,97.86816181225262,118.05755491601124,129.71043020782272,133.02424785064838,113.95147379725508,90.21385482040705,99.52507063366542,71.19498860291428,30.815596689375703,7.330254270421418,0.0,0.0,0.0,0.0,0.0,0.0,0.0,0.0,0.0,0.0,0.0,5.11488449732058,33.21116400382925,68.60135541947811,97.52593791018784,117.64325199740536,129.4941931581995,132.97034001474788,129.53023266647006,118.309831473905,99.20101791224127,71.68106768505056,22.837236976105924,7.474412303503578,0.0,0.0,0.0,0.0,0.0,0.0,0.0,0.0,0.0,0.0,0.0,5.3311215469438205,33.3371508562708,66.18791977739464,95.74304223633348,115.4100138966746,126.77457312232175,130.0526541098875,126.414480892627,115.04992166697987,65.0173928911288,67.95294712361907,35.93048118669629,7.996530893910391,0.0,0.0,0.0,0.0,0.0,0.0,0.0,0.0,0.0,0.0,0.0,5.619134760097462,33.553387905894034,66.40415682701789,92.82535633147312,110.9795772034836,121.31746472293638,124.23515062779673,108.2781283482465,111.3218011055484,93.18544856116785,68.16918417324231,37.08313974533221,8.17672843526309,0.0,0.0,0.0,0.0,0.0,0.0,0.0,0.0,0.0,0.0,0.0,5.745424465549691,34.29174354592409,67.14251246704794,95.83298958050449,114.79764510908608,125.4777565306037,129.27795610857623,125.8021121050385,87.71047183415254,97.29183253293466,70.38425109333247,37.02923190943174,8.014702074550996,0.0,0.0,0.0,0.0,0.0,0.0,0.0,0.0,0.0,0.0,0.0,3.0258044296719713,12.661375817365238,40.883339323304774,69.91604033882614,88.01635337493612,93.94197538183852,98.85849115716576,117.91339688292908,107.37774634750431,89.96157826251327,65.35961679319357,34.92198066114252,7.816636205568368,0.0,0.0,0.0,0.0,0.0,0.0,0.0,0.0,0.0,0.0,0.0,5.8532401373506335,22.76515795956484,49.34838382473218,67.48473636911272,64.02676069320496,110.7993796621309,56.750414258683996,107.48556201930529,69.4660007649604,63.828694824222325,37.2633372866849,19.414997955458016,6.249674728326572,0.0,0.0,0.0,0.0,0.0,0.0,0.0,0.0,0.0,0.0,0.0,1.7468561655838182,11.238572373205605,53.54471514067001,39.58682558459736,77.15634726507652,89.70960455763014,91.4746319038546,43.981222769517835,43.15261693230609,43.22469594884716,31.229899607981586,17.776260314685818,5.29508203867328,0.0,0.0,0.0,0.0,0.0,0.0,0.0,0.0,0.0,0.0,0.0,6.231503547685964,16.4615753953378,47.49340913433674,65.91807774488161,43.63899886745303,99.3088335840422,105.25232391857452,81.42475759755544,71.51904132433846,46.952816510278645,32.886808429394385,16.857707133303062,5.583095251826922,0.0,0.0,0.0,0.0,0.0,0.0,0.0,0.0,0.0,0.0,0.0,0.1801975413526997,16.76775978913205,3.9803971193252634,6.123385022874345,23.521381927224827,47.47523795369614,61.25292996841608,48.42983064334944,43.56691985091196,49.56431802134474,40.19919437218587,22.801197467835387,6.555859122120824,0.0,0.0,0.0,0.0,0.0,0.0,0.0,0.0,0.0,0.0,0.0,0.0,20.153656448498744,21.30631500713467,20.423801334022453,80.32600687481998,67.77274958226637,39.784891453579995,50.71697657998067,33.12091380664756,28.978490326610203,27.123515636214773,6.898083024185616,3.782028397331956,0.0,0.0,0.0,0.0,0.0,0.0,0.0,0.0,0.0,0.0,0.0,1.7828956738543582,5.475279580025981,13.543889490477447,50.91534530197397,115.28402704423306,124.8114799071147,128.37757410783408,110.25908989108349,115.53630360212685,97.56197741845837,69.51990860086086,38.001692926714966,8.627070862139501,0.0,0.0,0.0,0.0,0.0,0.0,0.0,0.0,0.0,0.0,0.0,6.988030368356628,36.362955285942775,68.69130276364912,93.63579098804425,110.9795772034836,120.83108278778944,123.37080813532512,119.30046367182888,109.05252349654708,91.72660560873769,67.214591483589,36.66913967973702,8.17672843526309,0.0,0.0,0.0,0.0,0.0,0.0,0.0,0.0,0.0,0.0,0.0,6.951990860086085,35.9486523673369,67.75488125463644,92.06882951080247,108.49406254485906,117.91339688292908,120.4531222304648,117.28315976771064,107.91803611855177,91.3843817066729,67.37661784430111,37.10131092597282,8.464741648416734,0.0,0.0,0.0,0.0,0.0,0.0,0.0,0.0,0.0,0.0,0.0,7.438372795233038,36.27270508876108,68.43902620575535,93.34747492187994,110.61948497378887,120.27292468911207,122.84838669190763,124.50529551332045,109.57494493996458,93.13154072526741,68.85363197737189,37.94778509081449,8.789097222851593,0.0,0.0,0.0,0.0,0.0,0.0,0.0,0.0,0.0,0.0,0.0,7.582227975304521,36.074639219778454,67.5386442050132,91.72660560873769,109.03435231590649,118.34587098217554,120.77717495188897,109.1606420213587,107.50373319994593,90.80805242735492,66.4941041711889,36.75908702390803,8.987163091834224,0.0,0.0,0.0,0.0,0.0,0.0,0.0,0.0,0.0,0.0,0.0,7.6543069918455995,35.876573350795816,65.16124807120026,94.04979105363948,111.42991963036002,108.17000982343487,124.99198030147808,120.92133298497112,110.38537959653573,93.4916329549621,66.74638072908267,36.939284565260735,9.041070927734696,0.0,0.0,0.0,0.0,0.0,0.0,0.0,0.0,0.0,0.0,0.0,6.988030368356628,30.25743859069836,57.0926381607488,81.58678395826753,58.60569180209012,62.964049478740044,108.42198352831798,106.78324588754576,97.9941486646942,72.36551548918014,65.77361685878877,32.346518658346966,9.239439649728004,0.0,0.0,0.0,0.0,0.0,0.0,0.0,0.0,0.0,0.0,0.0,8.482912829057343,32.09454495346386,53.05833320552306,72.67169988297441,74.90493798370515,90.9703816410777,101.43425601297199,96.265463679751,76.75991267410059,44.48547303229471,32.23840013353534,23.08921068098903,6.663674793921768,0.0,0.0,0.0,0.0,0.0,0.0,0.0,0.0,0.0,0.0,0.0,1.9991327234775975,23.08921068098903,42.81069588325197,57.34491471864258,81.4786654334559,86.19741819281124,96.58951640117516,114.11350015796721,103.325270211638,87.20591871836498,63.75661580768124,34.94015184178313,9.653439715323195,0.0,0.0,0.0,0.0,0.0,0.0,0.0,0.0,0.0,0.0,0.0,6.411701089038664,20.153656448498744,41.89214270186921,60.154482098691304,55.832163930311935,57.83129665378953,86.39548406179388,82.5053371396503,93.36534324950986,75.33710922994095,64.69303731669393,35.98469187560744,9.99566361738799,0.0,0.0,0.0,0.0,0.0,0.0,0.0,0.0,0.0,0.0,0.0,8.680978698039974,35.84053384252528,67.10647295877739,92.2850665604257,86.14320750390009,115.84248799592108,118.09359442428179,114.34760553522035,104.31590240956184,45.78228962401278,65.55768266217622,36.200626072220004,9.887545092576369,0.0,0.0,0.0,0.0,0.0,0.0,0.0,0.0,0.0,0.0,0.0,8.428702140146193,35.516481121101094,66.16974859675403,54.39118930551169,93.02311934744509,119.33650318009937,122.29022859323028,114.27552651867927,89.33134114729481,70.20435640499045,52.91447802545157,28.654437605186008,7.510451811774117,0.0,0.0,0.0,0.0,0.0,0.0,0.0,0.0,0.0,0.0,0.0,5.169095186231729,1.3688956082591641,19.343221791927608,38.091640270885975,86.14351035691074,58.67777081863121,51.11341117095661,78.79508490584873,79.71363808723149,41.51387929153389,28.114147834138603,20.04553792368712,10.4460060442644,0.0,0.0,0.0,0.0,0.0,0.0,0.0,0.0,0.0,0.0,0.0,9.383294829799489,40.163154863915345,74.56271408164038,100.85792673365408,118.85012124495243,128.93573220651146,131.09719414371182,126.27032285954486,115.42818507731519,97.41781938537622,72.0775022760265,39.4244963708746,10.571992896705954,0.0,0.0,0.0,0.0,0.0,0.0,0.0,0.0,0.0,0.0,0.0,9.401466010440092,38.632232894944075,69.42996125668985,93.8156856763863,110.20518205518302,119.39041101599985,121.82171498571327,118.90433193386356,108.31416785651705,92.21298754388464,68.1510129926017,38.54198269776239,10.535953388435413,0.0,0.0,0.0,0.0,0.0,0.0,0.0,0.0,0.0,0.0,0.0,5.3311215469438205,38.0377324349855,68.60135541947811,92.82535633147312,109.80874746420707,119.21021347464716,121.64182029737124,85.62108891349325,109.05282634955776,91.76264511700823,67.86299977944806,38.14585095979714,10.392098208363928,0.0,0.0,0.0,0.0,0.0,0.0,0.0,0.0,0.0,0.0,0.0,9.383294829799489,36.812994859808505,66.4941041711889,89.96157826251327,106.24295611649836,115.30189537186298,117.73350219458705,101.84855893157793,106.27899562476887,21.882644286452628,34.435901579006256,37.83966656600288,11.112282667753373,0.0,0.0,0.0,0.0,0.0,0.0,0.0,0.0,0.0,0.0,0.0,9.815768929045968,30.095412229986266,65.75574853115884,88.93490655631888,104.83832385297931,113.91513143597388,100.98391358609562,76.88620237955281,29.753188327921468,80.11007267820743,51.977753663428224,37.317547975596064,11.328519717376613,0.0,0.0,0.0,0.0,0.0,0.0,0.0,0.0,0.0,0.0,0.0,9.725518731864275,36.164889416960136,65.5395114815356,88.91703822868895,105.25232391857452,114.50963189593244,63.828694824222325,115.64442212693844,104.46006044264401,88.59298550726477,65.55768266217622,31.91434741211116,11.058374831852904,0.0,0.0,0.0,0.0,0.0,0.0,0.0,0.0,0.0,0.0,0.0,9.599531879422727,36.88507387634958,67.97111830425968,92.48313242940834,109.43078690688243,119.12026613047615,121.82171498571327,118.8322529173225,108.83658929993452,91.94284265836092,66.15188026912409,38.001692926714966,11.148322176023912,0.0,0.0,0.0,0.0,0.0,0.0,0.0,0.0,0.0,0.0,0.0,9.707650404234347,36.47107381075438,65.59372217044675,91.54671092039564,109.26845769315963,118.85012124495243,121.44375442838863,117.96760757184023,107.89986493791115,88.35857727700092,65.30540610428243,37.65946902465018,11.238572373205605,0.0,0.0,0.0,0.0,0.0,0.0,0.0,0.0,0.0,0.0,0.0,6.0516088593439425,35.264204563207315,59.77621868835598,80.1639805141079,104.47792877027392,105.32440293511559,96.39145053219252,106.33320631368004,90.0875651149548,80.41625707200167,58.46153376900796,37.06527141770228,11.382427553277084,0.0,0.0,0.0,0.0,0.0,0.0,0.0,0.0,0.0,0.0,0.0,9.941755781487517,30.833767870016324,64.54918213662246,87.08023471893412,102.62295407987848,111.2497220890073,114.23948701040877,111.28576159727787,61.415259182138854,71.51904132433846,63.84656315185225,31.01366255835834,11.868809488424034,0.0,0.0,0.0,0.0,0.0,0.0,0.0,0.0,0.0,0.0,0.0,10.211900667011227,35.444402104560005,63.432260233246396,86.03539183209915,101.99241411164937,111.08769572829523,114.16740799386767,110.85359035104206,101.18197945507823,74.670832606452,59.14598157313754,28.33038488376184,10.734019257418039,0.0,0.0,0.0,0.0,0.0,0.0,0.0,0.0,0.0,0.0,0.0,8.770926042210982,36.14671823631953,56.714677603424136,73.96851647469245,92.8613958397437,80.03799366166632,83.42389032103303,88.84495921214788,79.08340097201304,78.32687415134237,57.72317812897792,22.531052582311677,11.040203651212295,0.0,0.0,0.0,0.0,0.0,0.0,0.0,0.0,0.0,0.0,0.0,8.39296548488633,34.5437172508072,55.95815078275348,76.2738335919643,93.04129052808571,100.73193988121253,108.53040490614029,101.34400581579031,92.75327731493203,89.61935436044845,66.99835443396577,39.028364632909344,11.076243159482834,0.0,0.0,0.0,0.0,0.0,0.0,0.0,0.0,0.0,0.0,0.0,9.221268469087397,28.276174194850693,56.03022979929457,75.91343850925892,88.39461678527145,96.46352954873362,103.73957313024387,97.18371400812306,95.83298958050449,78.72330874231834,51.92384582752775,34.67000695625941,11.274611881476142,0.0,0.0,0.0,0.0,0.0,0.0,0.0,0.0,0.0,0.0,0.0,9.239439649728004,34.83203331697151,50.2308974978444,74.25652968784611,83.91027225617998,72.23952863673858,38.379956337050295,69.77218515875464,87.54844547344048,70.40242227397306,55.05746592900066,34.45376990663618,11.436638242188232,0.0,0.0,0.0,0.0,0.0,0.0,0.0,0.0,0.0,0.0,0.0,9.545624043522254,33.949519643859304,59.99245573797921,75.31924090231102,92.55490859293873,96.5356085652747,104.63995513098602,94.26602810326271,83.53170599283399,66.81845974562376,52.69824097582834,33.589124561153895,4.556726398643226,0.0,0.0,0.0,0.0,0.0,0.0,0.0,0.0,0.0,0.0,0.0,8.717018206310513,36.38082361357269,64.89110318567657,87.47636645689937,103.0551253261143,111.89813038486635,114.45542120702129,111.48413031927116,102.2807301778137,87.29616891554666,65.5395114815356,38.434167025961436,12.337020242930373,0.0,0.0,0.0,0.0,0.0,0.0,0.0,0.0,0.0,0.0,0.0,8.951123583563684,36.164889416960136,63.95468167666387,86.46756307833495,102.100532636461,110.76334015386036,53.995057567546425,61.559417215221,76.41799162504647,86.32340504525276,64.02676069320496,37.713679713561326,11.454506569818163,0.0,0.0,0.0,0.0,0.0,0.0,0.0,0.0,0.0,0.0,0.0,10.48204555253494,19.775393038163415,62.549746560134174,84.63045671556944,100.22768961843563,84.66649622383997,79.01132195547197,49.42046284127326,11.940888504965114,40.18102319154527,44.215328146771,31.21203128035165,11.688611947071335,0.0,0.0,0.0,0.0,0.0,0.0,0.0,0.0,0.0,0.0,0.0,9.635571387693263,37.10131092597282,66.89023590915416,90.46582852529015,106.90923273998736,116.31069875042742,119.10239780284624,99.79521551918914,107.70179906892855,91.18631583769026,68.61922374710804,40.45116807706897,12.481178276012535,0.0,0.0,0.0,0.0,0.0,0.0,0.0,0.0,0.0,0.0,0.0,10.085913814569675,35.822665514895355,63.48647092215752,85.56718107759279,101.09203211090723,109.89899766138876,112.96084159933129,110.47532694070671,101.6323218819547,86.75587914449926,47.63726431440823,32.49067669142912,12.931520702888944,0.0,0.0,0.0,0.0,0.0,0.0,0.0,0.0,0.0,0.0,0.0,9.85150558430583,36.290876269401686,41.117444700557954,86.93607668585196,56.516308881430845,112.33030163110216,113.50113137037869,86.6117211114171,102.31676968608423,87.06176068528282,66.04376174431249,39.28064119080312,12.751323161536249,0.0,0.0,0.0,0.0,0.0,0.0,0.0,0.0,0.0,0.0,0.0,9.85150558430583,35.91261285906636,63.88260266012279,86.46756307833495,101.07386093026663,82.88360054998563,114.25735533803869,110.11493185800131,101.39821650470148,86.62958943904705,65.10734023529979,38.93841728873833,13.111415391230972,0.0,0.0,0.0,0.0,0.0,0.0,0.0,0.0,0.0,0.0,0.0,10.17586115874069,25.700712192055125,63.23419436426374,84.97268061763423,100.11926824061331,109.03435231590649,111.70006451588371,108.33233903715765,99.651057486107,62.71207577385694,44.44943352402417,37.02923190943174,12.030835849136126,0.0,0.0,0.0,0.0,0.0,0.0,0.0,0.0,0.0,0.0,0.0,10.17586115874069,35.37232308801893,62.53187823250424,84.8466937651927,100.49753165094866,59.722310852455514,79.74967759550202,17.506115429162108,96.37327935155191,86.21558937345182,67.16068364768854,39.98295732256263,12.391230931841527,0.0,0.0,0.0,0.0,0.0,0.0,0.0,0.0,0.0,0.0,0.0,9.959624109117447,35.516481121101094,63.7024051187701,86.071128487359,101.97454578401943,76.81412336301175,115.30189537186298,91.45646072321397,43.4409329984704,4.628805415184306,7.0779777125276375,6.537687941480216,3.8362390862431037,0.0,0.0,0.0,0.0,0.0,0.0,0.0,0.0,0.0,0.0,0.0,9.959624109117447,35.552520629371635,62.91014164283956,85.45906255278119,101.34400581579031,95.11250226810438,49.43833116890321,73.96851647469245,102.91096729303213,86.80978698039974,65.68366951461776,33.89530895494815,13.795863195360553,0.0,0.0,0.0,0.0,0.0,0.0,0.0,0.0,0.0,0.0,0.0,5.673345449008611,34.77782262806036,61.81139092010411,68.27730269805393,100.37184765151777,70.54658030705524,44.41339401575363,67.07043345050685,85.6571284217638,56.714677603424136,15.524851033314441,0.9906321979238332,12.769191489166179,0.0,0.0,0.0,0.0,0.0,0.0,0.0,0.0,0.0,0.0,0.0,9.959624109117447,35.138217710765765,63.072168003551646,85.99904947081792,100.42545263440759,78.86716392238979,56.264335176547725,83.1177059272388,86.84582648867027,86.8818659969408,63.720576299410716,16.893746641573607,7.6724781724862074,0.0,0.0,0.0,0.0,0.0,0.0,0.0,0.0,0.0,0.0,0.0,9.941755781487517,35.24633623557738,62.82019429866857,85.36881235559947,101.2361901439894,73.89643745815141,25.700712192055125,98.5165701081117,89.25926213075373,65.21545876011142,7.7263860083866795,13.543889490477447,9.797597748405355,0.0,0.0,0.0,0.0,0.0,0.0,0.0,0.0,0.0,0.0,0.0,6.141556203514953,22.224868188517426,18.55065546298641,20.189695956769285,33.589124561153895,47.799290675120325,92.46526410177843,81.11857320376119,24.56622481405981,4.6827132510847775,20.92805159679934,15.18262713124965,9.149189452546317,0.0,0.0,0.0,0.0,0.0,0.0,0.0,0.0,0.0,0.0,0.0,9.689479223593738,35.192125546666226,62.9461811511101,85.92727330728752,100.1013999129834,89.79955190180117,112.85272307451963,109.41291857925249,100.49753165094866,85.9993523238286,66.72820954844207,40.253102208086354,13.20166558841266,0.1259868524415514,0.0,0.0,0.0,0.0,0.0,0.0,0.0,0.0,0.0,0.0,8.518952337327883,35.192125546666226,64.02676069320496,87.47606360388869,104.4418892620034,83.2258244520504,104.18961270410959,79.85779612031365,93.92410705420859,84.03625910862155,67.66493391046544,39.85697047012108,14.606297851931686,0.1259868524415514,0.0,0.0,0.0,0.0,0.0,0.0,0.0,0.0,0.0,0.0,7.924451877369312,34.95802016941307,62.351983544162216,78.61519021750671,100.17347892952448,96.69733207297614,92.64515879012043,103.61358627780231,71.26676476644468,74.4185560485582,66.71034122081214,40.577154929510534,13.183494407772052,0.14415803308215974,0.0,0.0,0.0,0.0,0.0,0.0,0.0,0.0,0.0,0.0,9.455373846340567,36.23666558049054,64.94531387458771,87.38611625971771,93.36564610252054,98.33637256675898,120.59697741053623,116.56267245531052,107.5576410358464,92.46496124876772,68.34907886158433,41.58595830807496,12.949389030518882,0.27014488552371113,0.0,0.0,0.0,0.0,0.0,0.0,0.0,0.0,0.0,0.0,8.284846960074711,29.266806392774523,52.77031999236942,76.5978863133885,90.14177580386595,98.12043837014643,103.6493229330622,110.47532694070671,101.25405847161932,86.95394501348188,66.2421304663058,40.30701004398682,13.363691949124751,0.1081185248116198,0.0,0.0,0.0,0.0,0.0,0.0,0.0,0.0,0.0,0.0,8.789097222851593,32.472505510788515,52.392056582034094,50.55495021926858,42.91851155505292,70.0601983719083,95.70700272806292,70.0601983719083,88.79105137624741,71.80705453749209,55.994190291024026,14.012100244983792,11.472677750458775,0.0,0.0,0.0,0.0,0.0,0.0,0.0,0.0,0.0,0.0,0.0,8.518952337327883,26.8894102589616,63.50433924978746,31.12178108316996,11.526585586359243,8.446873320786803,34.5437172508072,64.94531387458771,110.15127421928256,79.62369074306045,51.38355605648032,36.61492899082587,14.80436372091432,0.2883160661643195,0.0,0.0,0.0,0.0,0.0,0.0,0.0,0.0,0.0,0.0,0.0,8.10464941872201,32.45463718315858,49.78055507096799,89.81742022943111,104.3516390648217,119.55243737671196,99.52507063366542,87.80041917832355,48.19572526609626,59.8843372131676,31.049702066628882,13.309784113224277,0.14415803308215974,0.0,0.0,0.0,0.0,0.0,0.0,0.0,0.0,0.0,0.0,8.014702074550996,34.687875283889355,52.68037264819841,84.93664110936369,100.24555794606556,109.46682641515295,99.9393735522713,94.8783968908512,102.2086511612726,86.59354993077648,66.07980125258302,40.55928660188059,13.741955359460082,0.27014488552371113,0.0,0.0,0.0,0.0,0.0,0.0,0.0,0.0,0.0,0.0,9.311215813258409,34.34565138182456,62.153614822168905,84.70253573211052,100.94787407782506,110.99774838412421,113.98751330552565,67.124644139418,104.37011309847297,88.32253776873037,64.0628002014755,41.31581342255125,13.759823687090016,0.4321712462358025,0.0,0.0,0.0,0.0,0.0,0.0,0.0,0.0,0.0,0.0,8.680978698039974,34.18362502111247,62.585786068404715,73.68020040852815,56.33641419308882,22.495013074041136,74.78712816255187,74.69627225934885,74.7686541289006,56.20225030935899,22.422934057500054,32.23840013353534,13.88611339254224,0.4321712462358025,0.0,0.0,0.0,0.0,0.0,0.0,0.0,0.0,0.0,0.0,9.023202600104764,33.715414266606125,61.75748308420364,71.38275746953391,73.42004967235678,64.40805263364705,51.40354435518499,18.11848421675061,13.2377050966832,40.79339197913377,52.57225412338679,28.942753671350342,9.761558240134818,0.0,0.0,0.0,0.0,0.0,0.0,0.0,0.0,0.0,0.0,0.0,7.744557189027287,33.7693221025066,62.00975964209743,72.35673275187052,74.16749090270713,23.971724354101237,21.46834136784676,20.51374867819347,38.14585095979714,49.56431802134474,52.89630684481097,40.27097053571627,13.867942211901633,0.0,0.0,0.0,0.0,0.0,0.0,0.0,0.0,0.0,0.0,0.0,5.511016235285841,30.941886394827943,59.2719684255791,84.91877278173375,71.7171071933211,31.12178108316996,83.54987717347458,86.39548406179388,68.34907886158433,70.1501457160793,33.9313484632187,40.865470995674855,7.79846502492776,0.0,0.0,0.0,0.0,0.0,0.0,0.0,0.0,0.0,0.0,0.0,9.671610895963807,19.414997955458016,49.83446290686846,66.22395928566517,3.764160069702025,8.680978698039974,12.391230931841527,26.65530488170842,56.588387897971906,84.97268061763423,54.55321566622377,1.8731458710360465,14.029968572613726,0.0,0.0,0.0,0.0,0.0,0.0,0.0,0.0,0.0,0.0,0.0,8.428702140146193,33.37319036454134,60.85679823045082,83.71190353418667,99.12893889570014,112.72643336906742,115.98634317599256,108.44015470895859,100.04749207708296,74.0766349995041,65.14337974357035,39.87483879775101,15.452772016773359,0.0,0.0,0.0,0.0,0.0,0.0,0.0,0.0,0.0,0.0,0.0,8.879044567022605,32.1124132810938,58.33554691656642,82.61345566446191,100.0832287323428,86.71983963622873,94.66246269423864,111.66402500761318,102.100532636461,86.5036025866055,63.594589446969145,39.06440414117988,13.381560276754682,0.0,0.0,0.0,0.0,0.0,0.0,0.0,0.0,0.0,0.0,0.0,8.753057714581054,32.382558166617514,58.89370501524376,81.19065222030227,86.97181334111183,99.83125502745968,96.22912131846977,95.00438374329278,85.33307570033962,74.31074037675727,57.30887521037203,38.866338272197254,14.606297851931686,0.0,0.0,0.0,0.0,0.0,0.0,0.0,0.0,0.0,0.0,0.0,8.39296548488633,31.75232105139907,57.6332307848069,79.38958536580729,96.30120033501085,80.66823077688477,67.30453882776003,108.15183864279429,16.479443722967734,26.04293609411992,29.266806392774523,40.487207585339526,13.597797326377922,0.0,0.0,0.0,0.0,0.0,0.0,0.0,0.0,0.0,0.0,0.0,8.446873320786803,31.91434741211116,58.15534937521371,80.03799366166632,96.06739781076834,105.64875850955048,71.60898866850947,67.214591483589,100.49783450395935,85.20708884789808,65.10734023529979,40.523247093610046,15.434903689143429,0.1081185248116198,0.0,0.0,0.0,0.0,0.0,0.0,0.0,0.0,0.0,0.0,7.960491385639851,32.41859767488804,59.830429377267116,82.72157418927353,99.0386886985185,108.44015470895859,100.94787407782506,95.45502902317983,58.551481113178966,75.96764919817008,60.4967060007561,38.164022140437744,15.11054811470857,0.1081185248116198,0.0,0.0,0.0,0.0,0.0,0.0,0.0,0.0,0.0,0.0,7.6543069918455995,30.72564934520469,48.48373847924991,73.446095031275,90.75384173844378,87.38611625971771,90.10573629559542,65.62976167871729,79.89383562858418,67.30453882776003,58.78558649043214,38.10981145152658,5.259042530402739,0.0,0.0,0.0,0.0,0.0,0.0,0.0,0.0,0.0,0.0,0.0,1.945224887577126,10.320019191822848,28.942753671350342,33.517348397623486,68.5114080753071,95.56284469498077,89.16931478658272,88.6826299984251,80.63219126861424,61.90164111728581,43.02663007986453,32.81472941285331,12.625336309094699,0.0,0.0,0.0,0.0,0.0,0.0,0.0,0.0,0.0,0.0,0.0,7.888412369098773,20.153656448498744,31.21203128035165,54.031097075816966,82.05529756578456,82.70340300863292,77.22812342860693,96.33723984328137,95.14854177637493,71.23072525817415,56.60655907861253,29.266806392774523,10.392098208363928,0.0,0.0,0.0,0.0,0.0,0.0,0.0,0.0,0.0,0.0,0.0,6.735753810462848,30.79772836174577,56.624427406242454,78.79508490584873,71.95121257057427,83.62195619001567,36.362955285942775,103.3973492281791,91.78081629764885,66.65613053190098,17.073944182926304,7.528320139404049,0.0,0.0,0.0,0.0,0.0,0.0,0.0,0.0,0.0,0.0,0.0,0.0,7.8345045331983,30.833767870016324,56.6786380951536,79.47953270997832,96.98564813914041,59.68627134418497,97.52624076319852,98.48053059984112,62.78415479039803,78.43499267615401,51.131279498586544,34.16545384047186,9.815768929045968,0.0,0.0,0.0,0.0,0.0,0.0,0.0,0.0,0.0,0.0,0.0,7.366293778691957,31.26593911625212,58.96578403178484,72.43759450572121,84.03625910862155,88.73684068733624,72.41942332508061,68.79942128846075,85.62108891349325,86.89973432457073,58.80375767107275,38.34391682877976,15.002732442907623,0.1081185248116198,0.0,0.0,0.0,0.0,0.0,0.0,0.0,0.0,0.0,0.0,7.582227975304521,30.923715214187325,57.97515183386103,81.10040202312058,97.76004328744102,107.73783857719907,98.0123198453348,110.29543225236469,101.57811119304351,87.49423478452931,66.58435436837058,40.61319443778107,13.77799486773062,0.0,0.0,0.0,0.0,0.0,0.0,0.0,0.0,0.0,0.0,0.0,7.456241122862967,30.79772836174577,50.6630687440802,69.91604033882614,65.14337974357035,26.799462914790578,17.722049625774673,43.63899886745303,85.8009836018353,62.874102134569036,51.74364828617505,40.34304955225736,11.094414340123443,0.0,0.0,0.0,0.0,0.0,0.0,0.0,0.0,0.0,0.0,0.0,6.411701089038664,21.702446745099934,59.01999472069599,33.57125623352397,79.58765123478993,79.1194404802836,18.622734479527487,27.087476127944225,51.68974045027457,50.176686808933255,40.03686515846311,22.31481553268843,4.358357676649918,0.0,0.0,0.0,0.0,0.0,0.0,0.0,0.0,0.0,0.0,0.0,3.2959493151956814,22.94505264790687,8.32088646834525,22.332683860318365,26.799462914790578,50.843266285432904,53.11254389443421,58.96578403178484,62.315641182881,63.00008898701057,7.924451877369312,19.937419398875505,12.409099259471455,0.0,0.0,0.0,0.0,0.0,0.0,0.0,0.0,0.0,0.0,0.0,2.4134356420834693,18.24447106919216,27.53781855482064,45.962487165365495,105.10846873850305,88.32253776873037,115.1580401917915,76.05759654234106,47.74538283921985,83.4599298293036,67.86299977944806,41.13561588119856,14.336152966407974,0.0,0.0,0.0,0.0,0.0,0.0,0.0,0.0,0.0,0.0,0.0,6.033437678703332,31.518215674145893,61.4331275097688,88.39461678527145,106.33320631368004,46.75475064129603,97.1298061722226,114.32943435457977,105.10816588549237,90.86196026325541,69.21372420706662,31.39192596869367,13.147454899501511,0.0,0.0,0.0,0.0,0.0,0.0,0.0,0.0,0.0,0.0,0.0,6.555859122120824,31.01366255835834,59.488205475202335,83.08166641896824,99.61501797783643,109.59281326759451,78.72330874231834,111.30362992490778,68.97961882981343,88.53877481835363,66.78242023735321,40.46933925770959,14.588429524301755,0.0,0.0,0.0,0.0,0.0,0.0,0.0,0.0,0.0,0.0,0.0,6.915951351815544,30.18535957415727,49.18635746402009,73.89643745815141,87.06176068528282,97.31000371357528,110.40324792416565,107.73783857719907,49.58248920198536,64.80115584150555,65.61159049807671,39.80275978120993,12.697415325635777,0.0,0.0,0.0,0.0,0.0,0.0,0.0,0.0,0.0,0.0,0.0,6.663674793921768,29.681109311380396,56.78645376695454,80.14611218647795,96.89539794195872,106.85532490408687,110.29543225236469,109.39474739861187,100.94817693083574,86.8636948163002,66.17005144976471,39.92904948666215,14.174126605695884,0.0,0.0,0.0,0.0,0.0,0.0,0.0,0.0,0.0,0.0,0.0,5.943490334532322,29.897043507992954,58.60569180209012,82.52320546728022,73.66233208089822,39.730680764668854,114.94180314216824,110.99744553111351,106.62121952683368,91.88893482246046,70.00629053600782,41.31581342255125,13.20166558841266,0.0,0.0,0.0,0.0,0.0,0.0,0.0,0.0,0.0,0.0,0.0,5.348989874573751,29.77105665555141,54.661334191035394,57.14684884965994,26.63713370106781,67.97111830425968,97.77791161507095,88.55694599899422,73.24802916229234,72.86976575195699,49.56431802134474,33.517348397623486,13.075375882960431,0.0,0.0,0.0,0.0,0.0,0.0,0.0,0.0,0.0,0.0,0.0,4.988897644879028,24.34998776443657,50.41079218618642,75.6432936237352,83.53200884584466,97.47203007428736,113.03261776286169,94.69819934949852,87.20622157137565,80.63219126861424,66.07980125258302,34.50767774253665,12.427270440112064,0.0,0.0,0.0,0.0,0.0,0.0,0.0,0.0,0.0,0.0,0.0,5.169095186231729,29.662938130739786,59.09177088422639,82.93781123889676,99.77734719155924,109.66489228413558,79.02949313611258,14.318284638778046,49.47437067717374,84.68466740448058,69.84396132228504,36.18275774459007,12.769191489166179,0.0,0.0,0.0,0.0,0.0,0.0,0.0,0.0,0.0,0.0,0.0,5.781463973820231,23.485342418954293,48.681804348232525,63.9007738407634,87.85432701422404,55.597755700048076,45.926447657094954,65.05343239939933,72.14927843955691,61.4331275097688,40.829431487404314,18.44253693817479,7.474412303503578,0.0,0.0,0.0,0.0,0.0,0.0,0.0,0.0,0.0,0.0,0.0,2.845606888319271,20.20756428439922,22.188828680246885,23.39539507478328,67.30453882776003,57.41699373518365,58.695639146261136,88.19655091628883,83.02775858306778,79.15547998855412,46.68267162475493,19.505248152639705,12.733454833906315,0.0,0.0,0.0,0.0,0.0,0.0,0.0,0.0,0.0,0.0,0.0,5.3671610552143605,29.032701015521354,42.70257735844035,42.63049834189928,100.92970289718444,82.5952844838213,82.03712638514394,112.1143674344896,102.91096729303213,88.7728801956068,47.04306670746035,29.879175180363024,4.1424234800373565,0.0,0.0,0.0,0.0,0.0,0.0,0.0,0.0,0.0,0.0,0.0,5.259042530402739,29.050569343151285,57.47090157108412,81.31663907274383,98.22825404194737,108.02615464336338,111.52016982754171,108.98044448000601,40.253102208086354,88.21472209692942,65.59372217044675,39.19039099362143,12.715283653265708,0.0,0.0,0.0,0.0,0.0,0.0,0.0,0.0,0.0,0.0,0.0,4.862910792437477,28.744384949357034,57.52511225999528,81.15461271203172,97.81395112334148,107.70179906892855,85.4051547168807,113.77127625590242,100.49753165094866,86.66562894731756,65.93594607251154,39.13648315772096,10.95025630704128,0.0,0.0,0.0,0.0,0.0,0.0,0.0,0.0,0.0,0.0,0.0,4.538555218002617,22.657039434753226,57.38095422691312,81.35267858101435,98.5526096163822,108.31416785651705,111.77214353242479,109.23272103789976,100.73163702820185,64.15274754564649,65.37748512082351,38.25396948460874,12.517217784283078,0.0,0.0,0.0,0.0,0.0,0.0,0.0,0.0,0.0,0.0,0.0,2.7196200358777203,15.236837820160794,49.096107266838395,46.196592542618674,70.88880420912001,88.12477475275844,37.569521680479156,34.47163823426611,44.41339401575363,76.20175457542324,67.124644139418,38.992325124638796,12.751323161536249,0.0,0.0,0.0,0.0,0.0,0.0,0.0,0.0,0.0,0.0,0.0,4.7187527593553185,28.09597665349798,57.398822554543045,82.05499471277388,98.5526096163822,86.30553671762286,113.77127625590242,78.43499267615401,60.19052160696185,70.65439597885617,65.899906564241,38.434167025961436,11.202532864935062,0.0,0.0,0.0,0.0,0.0,0.0,0.0,0.0,0.0,0.0,0.0,4.754792267625857,28.078108325868055,57.52511225999528,81.69459963006847,98.75067548536484,84.288232813
...